VERS 140820 79 24485
MODE SEQ
NAME 
PFIL 0 0 0
UNIT MM X W X CM MR CPMM
ENPD 1.0E+1
ENVD 2.0E+1 1 0
GFAC 0 0
GCAT SCHOTT
RAIM 0 0 1 1 0 0 0 0 0
PUSH 0 0 0 0 0 0
SDMA 0 1 0
FTYP 1 0 7 1 0 0 0
ROPD 2
PICB 1
XFLN 0 0 0 0 0 0 0 0 0 0 0 0
YFLN 0 -2.E+1 2.0E+1 -4.E+1 4.0E+1 -6.E+1 6.0E+1 0 0 0 0 0
FWGN 1 1 1 1 1 1 1 1 1 1 1 1
VDXN 0 0 0 0 0 0 0 0 0 0 0 0
VDYN 0 0 0 0 0 0 0 0 0 0 0 0
VCXN 0 0 0 0 0 0 0 0 0 0 0 0
VCYN 0 0 0 0 0 0 0 0 0 0 0 0
VANN 0 0 0 0 0 0 0 0 0 0 0 0
WAVM 1 5.5E-1 1
WAVM 2 5.5E-1 1
WAVM 3 5.5E-1 1
WAVM 4 5.5E-1 1
WAVM 5 5.5E-1 1
WAVM 6 5.5E-1 1
WAVM 7 5.5E-1 1
WAVM 8 5.5E-1 1
WAVM 9 5.5E-1 1
WAVM 10 5.5E-1 1
WAVM 11 5.5E-1 1
WAVM 12 5.5E-1 1
WAVM 13 5.5E-1 1
WAVM 14 5.5E-1 1
WAVM 15 5.5E-1 1
WAVM 16 5.5E-1 1
WAVM 17 5.5E-1 1
WAVM 18 5.5E-1 1
WAVM 19 5.5E-1 1
WAVM 20 5.5E-1 1
WAVM 21 5.5E-1 1
WAVM 22 5.5E-1 1
WAVM 23 5.5E-1 1
WAVM 24 5.5E-1 1
PWAV 1
POLS 1 0 1 0 0 1 0
GLRS 0 0
GSTD 0 100.000 100.000 100.000 100.000 100.000 100.000 0 1 1 0 0 1 1 1 1 1 1
NSCD 100 500 0 1.0E-3 5 1.0E-6 0 0 0 0 0 0 1000000 0 2
COFN QF "COATING.DAT" "SCATTER_PROFILE.DAT" "ABG_DATA.DAT" "PROFILE.GRD"
COFN COATING.DAT SCATTER_PROFILE.DAT ABG_DATA.DAT PROFILE.GRD
SURF 0
  TYPE STANDARD
  CURV 0.0 0 0 0 0 ""
  HIDE 0 0 0 0 0 0 0 0 0 0
  MIRR 2 0
  SLAB 4
  DISZ 2.0E+2
  DIAM 6.0E+1 0 0 0 1 ""
  POPS 0 0 0 0 0 0 0 0 1 1 1 1 0 0 0 0
SURF 1
  COMM dummy for ray visibility
  TYPE STANDARD
  CURV 0.0 0 0 0 0 ""
  HIDE 0 0 1 0 0 0 0 0 0 0
  MIRR 2 0
  SLAB 6
  DISZ 4.0E+1
  DIAM 1.677506775068E+1 0 0 0 1 ""
  POPS 0 0 0 0 0 0 0 0 1 1 1 1 0 0 0 0
SURF 2
  COMM dummy
  TYPE STANDARD
  CURV 0.0 0 0 0 0 ""
  HIDE 0 0 1 0 0 0 0 1 0 0
  MIRR 2 0
  SLAB 17
  DISZ 2.0322581E+1
  DIAM 8.130081300813 0 0 0 1 ""
  POPS 0 0 0 0 0 0 0 0 1 1 1 1 0 0 0 0
SURF 3
  COMM Principal Obj space
  TYPE STANDARD
  CURV 0.0 0 0 0 0 ""
  HIDE 0 0 1 0 0 0 0 1 0 0
  MIRR 2 0
  SLAB 18
  DISZ -2.0322581E+1
  PZUP 2 -1. 0 0
  DIAM 6.491607748645 0 0 0 1 ""
  POPS 0 0 0 0 0 0 0 0 1 1 1 1 0 0 0 0
SURF 4
  COMM dummy
  TYPE STANDARD
  CURV 0.0 0 0 0 0 ""
  HIDE 0 0 1 0 0 0 0 1 0 0
  MIRR 2 0
  SLAB 13
  DISZ -1.7311828E+1
  DIAM 8.130081300813 0 0 0 1 ""
  POPS 0 0 0 0 0 0 0 0 1 1 1 1 0 0 0 0
SURF 5
  COMM Focal Obj space
  TYPE STANDARD
  CURV 0.0 0 0 0 0 ""
  HIDE 0 0 1 0 0 0 0 1 0 0
  MIRR 2 0
  SLAB 14
  DISZ 1.7311828E+1
  PZUP 4.0 -1. 0 0
  DIAM 1.187159426287E+1 0 0 0 1 ""
  POPS 0 0 0 0 0 0 0 0 1 1 1 1 0 0 0 0
SURF 6
  COMM dummy
  TYPE STANDARD
  CURV 0.0 0 0 0 0 ""
  HIDE 0 0 1 0 0 0 0 1 0 0
  MIRR 2 0
  SLAB 9
  DISZ 1.448275862E+1
  DIAM 8.130081300813 0 0 0 1 ""
  POPS 0 0 0 0 0 0 0 0 1 1 1 1 0 0 0 0
SURF 7
  COMM ENPP
  TYPE STANDARD
  CURV 0.0 0 0 0 0 ""
  HIDE 0 0 0 0 0 0 0 1 0 0
  MIRR 2 0
  SLAB 10
  DISZ -1.448275862E+1
  PZUP 6.0 -1. 0 0
  DIAM 1 1 0 0 1 ""
  POPS 0 0 0 0 0 0 0 0 1 1 1 1 0 0 0 0
SURF 8
  TYPE PARAXIAL
  CURV 0.0 0 0.0 0.0 0
  HIDE 0 0 0 0 0 0 0 0 0 0
  MIRR 2 0
  SLAB 1
  PARM 1 7.0E+1
  PARM 2 1
  DISZ 1.2E+1
  DIAM 8.130081300813 0 0 0 1 ""
  POPS 0 0 0 0 0 0 0 0 1 1 1 1 0 0 0 0
SURF 9
  STOP
  TYPE STANDARD
  CURV 0.0 0 0 0 0 ""
  HIDE 0 0 0 0 0 0 0 0 0 0
  MIRR 2 0
  SLAB 5
  DISZ 1.5E+1
  DIAM 4.142857142857 0 0 0 1 ""
  POPS 0 0 0 0 0 0 0 0 1 1 1 1 0 0 0 0
SURF 10
  TYPE PARAXIAL
  CURV 0.0 0 0.0 0.0 0
  HIDE 0 0 0 0 0 0 0 0 0 0
  MIRR 2 0
  SLAB 2
  PARM 1 5.0E+1
  PARM 2 1
  DISZ 3.087110064741E+1
  DIAM 7.695412311266 0 0 0 1 ""
  POPS 0 0 0 0 0 0 0 0 1 1 1 1 0 0 0 0
SURF 11
  COMM dummy
  TYPE STANDARD
  CURV 0.0 0 0 0 0 ""
  HIDE 0 0 1 0 0 0 0 1 0 0
  MIRR 2 0
  SLAB 7
  DISZ -5.229967208E+1
  DIAM 1.057931415099E+1 0 0 0 1 ""
  POPS 0 0 0 0 0 0 0 0 1 1 1 1 0 0 0 0
SURF 12
  COMM EXPP
  TYPE STANDARD
  CURV 0.0 0 0 0 0 ""
  HIDE 0 0 0 0 0 0 0 1 0 0
  MIRR 2 0
  SLAB 8
  DISZ 5.229967208E+1
  PZUP 1.1E+1 -1. 0 0
  DIAM 1 1 0 0 1 ""
  POPS 0 0 0 0 0 0 0 0 1 1 1 1 0 0 0 0
SURF 13
  COMM dummy
  TYPE STANDARD
  CURV 0.0 0 0 0 0 ""
  HIDE 0 0 1 0 0 0 0 1 0 0
  MIRR 2 0
  SLAB 11
  DISZ -7.752821
  DIAM 1.057931415099E+1 0 0 0 1 ""
  POPS 0 0 0 0 0 0 0 0 1 1 1 1 0 0 0 0
SURF 14
  COMM Focal Img space
  TYPE STANDARD
  CURV 0.0 0 0 0 0 ""
  HIDE 0 0 1 0 0 0 0 1 0 0
  MIRR 2 0
  SLAB 12
  DISZ 7.752821
  PZUP 1.3E+1 -1. 0 0
  DIAM 9.612582691395 0 0 0 1 ""
  POPS 0 0 0 0 0 0 0 0 1 1 1 1 0 0 0 0
SURF 15
  COMM dummy
  TYPE STANDARD
  CURV 0.0 0 0 0 0 ""
  HIDE 0 0 1 0 0 0 0 1 0 0
  MIRR 2 0
  SLAB 15
  DISZ -4.538723E+1
  DIAM 1.057931415099E+1 0 0 0 1 ""
  POPS 0 0 0 0 0 0 0 0 1 1 1 1 0 0 0 0
SURF 16
  COMM Principal Img space
  TYPE STANDARD
  CURV 0.0 0 0 0 0 ""
  HIDE 0 0 1 0 0 0 0 1 0 0
  MIRR 2 0
  SLAB 16
  DISZ 4.538723E+1
  PZUP 1.5E+1 -1. 0 0
  DIAM 6.491607631447 0 0 0 1 ""
  POPS 0 0 0 0 0 0 0 0 1 1 1 1 0 0 0 0
SURF 17
  TYPE STANDARD
  CURV 0.0 0 0 0 0 ""
  HIDE 0 0 0 0 0 0 0 0 0 0
  MIRR 2 0
  SLAB 3
  DISZ 0
  DIAM 1.057931415099E+1 0 0 0 1 ""
  POPS 0 0 0 0 0 0 0 0 1 1 1 1 0 0 0 0
DMFS 0 0 0 0 0 0 0 0 0 0
BLNK Sequential merit function: RMS spot radius centroid GQ 3 rings 6 arms
BLNK Default air thickness boundary constraints.
MNCA 8 10 0 0 0 0 1 1 0 0
MXCA 8 10 0 0 0 0 1.0E+3 1 0 0
MNEA 8 10 0 0 0 0 0 1 0 0
BLNK Default glass thickness boundary constraints.
MNCG 8 10 0 0 0 0 1 1 0 0
MXCG 8 10 0 0 0 0 1.0E+2 1 0 0
MNEG 8 10 0 0 0 0 0 1 0 0
BLNK Operands for field 1.
TRAC 0 1 0 0 3.357106870197E-1 0 0 1.246663751425E-1 0 0
TRAC 0 1 0 0 7.071067811865E-1 0 0 1.994662002279E-1 0 0
TRAC 0 1 0 0 9.419651451199E-1 0 0 1.246663751425E-1 0 0
BLNK Operands for field 2.
TRAC 0 1 0 -3.333333333333E-1 1.678553435099E-1 2.90733983281E-1 0 4.155545838082E-2 0 0
TRAC 0 1 0 -3.333333333333E-1 3.535533905933E-1 6.123724356958E-1 0 6.648873340931E-2 0 0
TRAC 0 1 0 -3.333333333333E-1 4.709825725599E-1 8.157657451533E-1 0 4.155545838082E-2 0 0
TRAC 0 1 0 -3.333333333333E-1 3.357106870197E-1 0 0 4.155545838082E-2 0 0
TRAC 0 1 0 -3.333333333333E-1 7.071067811865E-1 0 0 6.648873340931E-2 0 0
TRAC 0 1 0 -3.333333333333E-1 9.419651451199E-1 0 0 4.155545838082E-2 0 0
TRAC 0 1 0 -3.333333333333E-1 1.678553435099E-1 -2.90733983281E-1 0 4.155545838082E-2 0 0
TRAC 0 1 0 -3.333333333333E-1 3.535533905933E-1 -6.123724356958E-1 0 6.648873340931E-2 0 0
TRAC 0 1 0 -3.333333333333E-1 4.709825725599E-1 -8.157657451533E-1 0 4.155545838082E-2 0 0
BLNK Operands for field 3.
TRAC 0 1 0 3.333333333333E-1 1.678553435099E-1 2.90733983281E-1 0 4.155545838082E-2 0 0
TRAC 0 1 0 3.333333333333E-1 3.535533905933E-1 6.123724356958E-1 0 6.648873340931E-2 0 0
TRAC 0 1 0 3.333333333333E-1 4.709825725599E-1 8.157657451533E-1 0 4.155545838082E-2 0 0
TRAC 0 1 0 3.333333333333E-1 3.357106870197E-1 0 0 4.155545838082E-2 0 0
TRAC 0 1 0 3.333333333333E-1 7.071067811865E-1 0 0 6.648873340931E-2 0 0
TRAC 0 1 0 3.333333333333E-1 9.419651451199E-1 0 0 4.155545838082E-2 0 0
TRAC 0 1 0 3.333333333333E-1 1.678553435099E-1 -2.90733983281E-1 0 4.155545838082E-2 0 0
TRAC 0 1 0 3.333333333333E-1 3.535533905933E-1 -6.123724356958E-1 0 6.648873340931E-2 0 0
TRAC 0 1 0 3.333333333333E-1 4.709825725599E-1 -8.157657451533E-1 0 4.155545838082E-2 0 0
BLNK Operands for field 4.
TRAC 0 1 0 -6.666666666667E-1 1.678553435099E-1 2.90733983281E-1 0 4.155545838082E-2 0 0
TRAC 0 1 0 -6.666666666667E-1 3.535533905933E-1 6.123724356958E-1 0 6.648873340931E-2 0 0
TRAC 0 1 0 -6.666666666667E-1 4.709825725599E-1 8.157657451533E-1 0 4.155545838082E-2 0 0
TRAC 0 1 0 -6.666666666667E-1 3.357106870197E-1 0 0 4.155545838082E-2 0 0
TRAC 0 1 0 -6.666666666667E-1 7.071067811865E-1 0 0 6.648873340931E-2 0 0
TRAC 0 1 0 -6.666666666667E-1 9.419651451199E-1 0 0 4.155545838082E-2 0 0
TRAC 0 1 0 -6.666666666667E-1 1.678553435099E-1 -2.90733983281E-1 0 4.155545838082E-2 0 0
TRAC 0 1 0 -6.666666666667E-1 3.535533905933E-1 -6.123724356958E-1 0 6.648873340931E-2 0 0
TRAC 0 1 0 -6.666666666667E-1 4.709825725599E-1 -8.157657451533E-1 0 4.155545838082E-2 0 0
BLNK Operands for field 5.
TRAC 0 1 0 6.666666666667E-1 1.678553435099E-1 2.90733983281E-1 0 4.155545838082E-2 0 0
TRAC 0 1 0 6.666666666667E-1 3.535533905933E-1 6.123724356958E-1 0 6.648873340931E-2 0 0
TRAC 0 1 0 6.666666666667E-1 4.709825725599E-1 8.157657451533E-1 0 4.155545838082E-2 0 0
TRAC 0 1 0 6.666666666667E-1 3.357106870197E-1 0 0 4.155545838082E-2 0 0
TRAC 0 1 0 6.666666666667E-1 7.071067811865E-1 0 0 6.648873340931E-2 0 0
TRAC 0 1 0 6.666666666667E-1 9.419651451199E-1 0 0 4.155545838082E-2 0 0
TRAC 0 1 0 6.666666666667E-1 1.678553435099E-1 -2.90733983281E-1 0 4.155545838082E-2 0 0
TRAC 0 1 0 6.666666666667E-1 3.535533905933E-1 -6.123724356958E-1 0 6.648873340931E-2 0 0
TRAC 0 1 0 6.666666666667E-1 4.709825725599E-1 -8.157657451533E-1 0 4.155545838082E-2 0 0
BLNK Operands for field 6.
TRAC 0 1 0 -1. 1.678553435099E-1 2.90733983281E-1 0 4.155545838082E-2 0 0
TRAC 0 1 0 -1. 3.535533905933E-1 6.123724356958E-1 0 6.648873340931E-2 0 0
TRAC 0 1 0 -1. 4.709825725599E-1 8.157657451533E-1 0 4.155545838082E-2 0 0
TRAC 0 1 0 -1. 3.357106870197E-1 0 0 4.155545838082E-2 0 0
TRAC 0 1 0 -1. 7.071067811865E-1 0 0 6.648873340931E-2 0 0
TRAC 0 1 0 -1. 9.419651451199E-1 0 0 4.155545838082E-2 0 0
TRAC 0 1 0 -1. 1.678553435099E-1 -2.90733983281E-1 0 4.155545838082E-2 0 0
TRAC 0 1 0 -1. 3.535533905933E-1 -6.123724356958E-1 0 6.648873340931E-2 0 0
TRAC 0 1 0 -1. 4.709825725599E-1 -8.157657451533E-1 0 4.155545838082E-2 0 0
BLNK Operands for field 7.
TRAC 0 1 0 1 1.678553435099E-1 2.90733983281E-1 0 4.155545838082E-2 0 0
TRAC 0 1 0 1 3.535533905933E-1 6.123724356958E-1 0 6.648873340931E-2 0 0
TRAC 0 1 0 1 4.709825725599E-1 8.157657451533E-1 0 4.155545838082E-2 0 0
TRAC 0 1 0 1 3.357106870197E-1 0 0 4.155545838082E-2 0 0
TRAC 0 1 0 1 7.071067811865E-1 0 0 6.648873340931E-2 0 0
TRAC 0 1 0 1 9.419651451199E-1 0 0 4.155545838082E-2 0 0
TRAC 0 1 0 1 1.678553435099E-1 -2.90733983281E-1 0 4.155545838082E-2 0 0
TRAC 0 1 0 1 3.535533905933E-1 -6.123724356958E-1 0 6.648873340931E-2 0 0
TRAC 0 1 0 1 4.709825725599E-1 -8.157657451533E-1 0 4.155545838082E-2 0 0
TOL TOFF   0   0              0              0   0 0 0
MNUM 1 1
MOFF   0   1 "" 0 0 0 1 1 0 0.0 ""
