VERS 140124 66 24485
MODE SEQ
NAME Focal Plane Blurring and Keystone Distortion 
NOTE 0 Configuration 1 is diffraction limited across its field of view. The PSF grid may need to be maximized for its details to be visible. Configuration 2 shows both image and object surfaces tilted (use c
NOTE 0 ntrol-A to switch configurations). 
NOTE 4
NOTE 0 
NOTE 4
NOTE 0 ZEMAX automatically switches from diffraction to Geometric PSF calculation when the spot is 20x the diffraction limit. This is done independently for each field and wavelength. Note that the central x
NOTE 0 -slice is still diffraction limited, while the top and bottom x-slices are geometrically aberrated.
NOTE 4
NOTE 0  
PFIL 0 0 0
UNIT MM X W X CM MR CPMM
FLOA
ENVD 2.0E+1 1 0
GFAC 0 0
GCAT SCHOTT
RAIM 0 0 1 1 0 0 0 0 0
PUSH 0 0 0 0 0 0
SDMA 0 1 1
FTYP 1 0 5 3 0 0 0
ROPD 2
PICB 1
XFLN 0 0 0 0 0 0 0 0 0 0 0 0
YFLN 0 7.0 1.0E+1 -7. -1.E+1 0 0 0 0 0 0 0
FWGN 1 1 1 1 1 1 1 1 1 1 1 1
VDXN 0 0 0 0 0 0 0 0 0 0 0 0
VDYN 0 0 0 0 0 0 0 0 0 0 0 0
VCXN 0 0 0 0 0 0 0 0 0 0 0 0
VCYN 0 0 0 0 0 0 0 0 0 0 0 0
VANN 0 0 0 0 0 0 0 0 0 0 0 0
WAVM 1 4.8E-1 8.00000012E-1
WAVM 2 5.5E-1 1
WAVM 3 6.5E-1 8.00000012E-1
WAVM 4 5.5E-1 1
WAVM 5 5.5E-1 1
WAVM 6 5.5E-1 1
WAVM 7 5.5E-1 1
WAVM 8 5.5E-1 1
WAVM 9 5.5E-1 1
WAVM 10 5.5E-1 1
WAVM 11 5.5E-1 1
WAVM 12 5.5E-1 1
WAVM 13 5.5E-1 1
WAVM 14 5.5E-1 1
WAVM 15 5.5E-1 1
WAVM 16 5.5E-1 1
WAVM 17 5.5E-1 1
WAVM 18 5.5E-1 1
WAVM 19 5.5E-1 1
WAVM 20 5.5E-1 1
WAVM 21 5.5E-1 1
WAVM 22 5.5E-1 1
WAVM 23 5.5E-1 1
WAVM 24 5.5E-1 1
PWAV 2
POLS 1 0 1 0 0 1 0
GLRS 5 0
GSTD 1 10.000 2.000 1.000 100.000 100.000 100.000 0 1 1 0 0 1 1 1 0 0 0
NSCD 100 500 0 1.0E-6 5 1.0E-6 0 0 0 0 0 1 1000000 0 2
COFN QF "COATING.DAT" "SCATTER_PROFILE.DAT" "ABG_DATA.DAT" "PROFILE.GRD"
COFN COATING.DAT SCATTER_PROFILE.DAT ABG_DATA.DAT PROFILE.GRD
SURF 0
  COMM tilted
  TYPE TILTSURF
  CURV 0.0 0 0.0 0.0 0
  HIDE 0 0 0 0 0 0 0 0 0 0
  MIRR 2 0
  SLAB 6
  PARM 1 0
  PARM 2 -5.77E-1
  DISZ 1.0E+2
  DIAM 1.0E+1 0 0 0 1 ""
  POPS 0 0 0 0 0 0 0 0 1 1 1 1 0 0 0 0
SURF 1
  TYPE STANDARD
  CURV 3.532782061781496900E-002 1 0 0 0 ""
  COAT AR
  HIDE 0 0 0 0 0 0 0 0 0 0
  MIRR 2 0
  SLAB 7
  DISZ 4.999621018273
  GLAS N-LAK34 3 0 1.620409965081 6.032364915667E+1 -1.1E-3 0 0 0 0 0 
  VDSZ 0 0
  DIAM 6.961232700988 0 0 0 1 ""
  POPS 0 0 0 0 0 0 0 0 1 1 1 1 0 0 0 0
SURF 2
  TYPE STANDARD
  CURV -1.742092955557711000E-002 1 0 0 0 ""
  COAT AR
  HIDE 0 0 0 0 0 0 0 0 0 0
  MIRR 2 0
  SLAB 8
  DISZ 5.132376703344
  VDSZ 0 0
  DIAM 6.490857510329 0 0 0 1 ""
  POPS 0 0 0 0 0 0 0 0 1 1 1 1 0 0 0 0
SURF 3
  TYPE STANDARD
  CURV -7.411285380286174200E-002 1 0 0 0 ""
  COAT AR
  HIDE 0 0 0 0 0 0 0 0 0 0
  MIRR 2 0
  SLAB 1
  DISZ 5.000000624481
  GLAS SF5 3 0 1.620040137246 3.636649125306E+1 2.0E-4 0 0 0 0 0 
  VDSZ 0 0
  DIAM 5.169675935411 0 0 0 1 ""
  POPS 0 0 0 0 0 0 0 0 1 1 1 1 0 0 0 0
SURF 4
  TYPE STANDARD
  CURV 5.359492518886562600E-002 1 0 0 0 ""
  COAT AR
  HIDE 0 0 0 0 0 0 0 0 0 0
  MIRR 2 0
  SLAB 2
  DISZ 1.79781969189
  VDSZ 0 0
  DIAM 5.022567196413 0 0 0 1 ""
  POPS 0 0 0 0 0 0 0 0 1 1 1 1 0 0 0 0
SURF 5
  STOP
  TYPE STANDARD
  CURV 0.0 0 0 0 0 ""
  HIDE 0 0 0 0 0 0 0 0 0 0
  MIRR 2 0
  SLAB 9
  DISZ 4.999985721057E-1
  VDSZ 0 0
  DIAM 4.0 1 0 0 1 ""
  POPS 0 0 0 0 0 0 0 0 1 1 1 1 0 0 0 0
SURF 6
  TYPE STANDARD
  CURV 2.319779803592751700E-002 1 0 0 0 ""
  COAT AR
  HIDE 0 0 0 0 0 0 0 0 0 0
  MIRR 2 0
  SLAB 3
  DISZ 3.039320133753
  GLAS N-LAK34 2 1 1.620409965081 6.032364915667E+1 -1.1E-3 0 0 0 0 0 
  VDSZ 0 0
  DIAM 5.247893288416 0 0 0 1 ""
  POPS 0 0 0 0 0 0 0 0 1 1 1 1 0 0 0 0
SURF 7
  TYPE STANDARD
  CURV -6.924238978831846700E-002 11 5.0 0 0 ""
  COAT AR
  HIDE 0 0 0 0 0 0 0 0 0 0
  MIRR 2 0
  SLAB 4
  DISZ 4.290485094426E+1
  VDSZ 0 0
  DIAM 5.514311394682 0 0 0 1 ""
  POPS 0 0 0 0 0 0 0 0 1 1 1 1 0 0 0 0
SURF 8
  COMM tilted
  TYPE COORDBRK
  CURV 0.0 0 0.0 0.0 0
  HIDE 0 0 0 0 0 0 0 0 0 0
  MIRR 2 0
  SLAB 10
  PARM 1 0
  PARM 2 0
  PARM 3 3.0E+1
  PARM 4 0
  PARM 5 0
  PARM 6 0
  DISZ 0
  DIAM 0 0 0 0 1 ""
  POPS 0 0 0 0 0 0 0 0 1 1 1 1 0 0 0 0
SURF 9
  TYPE STANDARD
  CURV 0.0 0 0 0 0 ""
  HIDE 0 0 0 0 0 0 0 0 0 0
  MIRR 2 0
  SLAB 5
  SCBD 2 1 2 -0.000000000000E+000 -0.000000000000E+000 -0.000000000000E+000 -0.000000000000E+000 -0.000000000000E+000
  DISZ 0
  DIAM 5.757789115401 0 0 0 1 ""
  POPS 0 0 0 0 0 0 0 0 1 1 1 1 0 0 0 0
CONF 1 0 0 0 0 0 0 0 0 0
DMFS 0 0 0 0 0 0 0 0 0 0
BLNK Default merit function: RMS spot radius centroid GQ 4 rings 6 arms
BLNK Default air thickness boundary constraints.
MNCA 0 7 0 0 0 0 5.0E-1 1 0 0
MXCA 0 7 0 0 0 0 1.01E+2 1 0 0
MNEA 0 7 0 0 0 0 5.0E-1 1 0 0
BLNK Default glass thickness boundary constraints.
MNCG 0 7 0 0 0 0 1 1 0 0
MXCG 0 7 0 0 0 0 5.0 1 0 0
MNEG 0 7 0 0 0 0 1 1 0 0
BLNK Operands for field 1.
TRAC 0 1 0 0 2.634992299855E-1 0 0 4.856969966185E-2 0 0
TRAC 0 1 0 0 5.744645143154E-1 0 0 9.105664259196E-2 0 0
TRAC 0 1 0 0 8.1852948743E-1 0 0 9.105664259196E-2 0 0
TRAC 0 1 0 0 9.646596061809E-1 0 0 4.856969966185E-2 0 0
TRAC 0 2 0 0 2.634992299855E-1 0 0 6.071212366663E-2 0 0
TRAC 0 2 0 0 5.744645143154E-1 0 0 1.138208015326E-1 0 0
TRAC 0 2 0 0 8.1852948743E-1 0 0 1.138208015326E-1 0 0
TRAC 0 2 0 0 9.646596061809E-1 0 0 6.071212366663E-2 0 0
TRAC 0 3 0 0 2.634992299855E-1 0 0 4.856969966185E-2 0 0
TRAC 0 3 0 0 5.744645143154E-1 0 0 9.105664259196E-2 0 0
TRAC 0 3 0 0 8.1852948743E-1 0 0 9.105664259196E-2 0 0
TRAC 0 3 0 0 9.646596061809E-1 0 0 4.856969966185E-2 0 0
BLNK Operands for field 2.
TRAC 0 1 0 7.0E-1 1.317496149928E-1 2.281970270451E-1 0 1.618989988728E-2 0 0
TRAC 0 1 0 7.0E-1 2.872322571577E-1 4.975008629698E-1 0 3.035221419732E-2 0 0
TRAC 0 1 0 7.0E-1 4.09264743715E-1 7.08867329861E-1 0 3.035221419732E-2 0 0
TRAC 0 1 0 7.0E-1 4.823298030904E-1 8.354197249573E-1 0 1.618989988728E-2 0 0
TRAC 0 1 0 7.0E-1 2.634992299855E-1 0 0 1.618989988728E-2 0 0
TRAC 0 1 0 7.0E-1 5.744645143154E-1 0 0 3.035221419732E-2 0 0
TRAC 0 1 0 7.0E-1 8.1852948743E-1 0 0 3.035221419732E-2 0 0
TRAC 0 1 0 7.0E-1 9.646596061809E-1 0 0 1.618989988728E-2 0 0
TRAC 0 1 0 7.0E-1 1.317496149928E-1 -2.281970270451E-1 0 1.618989988728E-2 0 0
TRAC 0 1 0 7.0E-1 2.872322571577E-1 -4.975008629698E-1 0 3.035221419732E-2 0 0
TRAC 0 1 0 7.0E-1 4.09264743715E-1 -7.08867329861E-1 0 3.035221419732E-2 0 0
TRAC 0 1 0 7.0E-1 4.823298030904E-1 -8.354197249573E-1 0 1.618989988728E-2 0 0
TRAC 0 2 0 7.0E-1 1.317496149928E-1 2.281970270451E-1 0 2.023737455554E-2 0 0
TRAC 0 2 0 7.0E-1 2.872322571577E-1 4.975008629698E-1 0 3.794026717755E-2 0 0
TRAC 0 2 0 7.0E-1 4.09264743715E-1 7.08867329861E-1 0 3.794026717755E-2 0 0
TRAC 0 2 0 7.0E-1 4.823298030904E-1 8.354197249573E-1 0 2.023737455554E-2 0 0
TRAC 0 2 0 7.0E-1 2.634992299855E-1 0 0 2.023737455554E-2 0 0
TRAC 0 2 0 7.0E-1 5.744645143154E-1 0 0 3.794026717755E-2 0 0
TRAC 0 2 0 7.0E-1 8.1852948743E-1 0 0 3.794026717755E-2 0 0
TRAC 0 2 0 7.0E-1 9.646596061809E-1 0 0 2.023737455554E-2 0 0
TRAC 0 2 0 7.0E-1 1.317496149928E-1 -2.281970270451E-1 0 2.023737455554E-2 0 0
TRAC 0 2 0 7.0E-1 2.872322571577E-1 -4.975008629698E-1 0 3.794026717755E-2 0 0
TRAC 0 2 0 7.0E-1 4.09264743715E-1 -7.08867329861E-1 0 3.794026717755E-2 0 0
TRAC 0 2 0 7.0E-1 4.823298030904E-1 -8.354197249573E-1 0 2.023737455554E-2 0 0
TRAC 0 3 0 7.0E-1 1.317496149928E-1 2.281970270451E-1 0 1.618989988728E-2 0 0
TRAC 0 3 0 7.0E-1 2.872322571577E-1 4.975008629698E-1 0 3.035221419732E-2 0 0
TRAC 0 3 0 7.0E-1 4.09264743715E-1 7.08867329861E-1 0 3.035221419732E-2 0 0
TRAC 0 3 0 7.0E-1 4.823298030904E-1 8.354197249573E-1 0 1.618989988728E-2 0 0
TRAC 0 3 0 7.0E-1 2.634992299855E-1 0 0 1.618989988728E-2 0 0
TRAC 0 3 0 7.0E-1 5.744645143154E-1 0 0 3.035221419732E-2 0 0
TRAC 0 3 0 7.0E-1 8.1852948743E-1 0 0 3.035221419732E-2 0 0
TRAC 0 3 0 7.0E-1 9.646596061809E-1 0 0 1.618989988728E-2 0 0
TRAC 0 3 0 7.0E-1 1.317496149928E-1 -2.281970270451E-1 0 1.618989988728E-2 0 0
TRAC 0 3 0 7.0E-1 2.872322571577E-1 -4.975008629698E-1 0 3.035221419732E-2 0 0
TRAC 0 3 0 7.0E-1 4.09264743715E-1 -7.08867329861E-1 0 3.035221419732E-2 0 0
TRAC 0 3 0 7.0E-1 4.823298030904E-1 -8.354197249573E-1 0 1.618989988728E-2 0 0
BLNK Operands for field 3.
TRAC 0 1 0 1 1.317496149928E-1 2.281970270451E-1 0 1.618989988728E-2 0 0
TRAC 0 1 0 1 2.872322571577E-1 4.975008629698E-1 0 3.035221419732E-2 0 0
TRAC 0 1 0 1 4.09264743715E-1 7.08867329861E-1 0 3.035221419732E-2 0 0
TRAC 0 1 0 1 4.823298030904E-1 8.354197249573E-1 0 1.618989988728E-2 0 0
TRAC 0 1 0 1 2.634992299855E-1 0 0 1.618989988728E-2 0 0
TRAC 0 1 0 1 5.744645143154E-1 0 0 3.035221419732E-2 0 0
TRAC 0 1 0 1 8.1852948743E-1 0 0 3.035221419732E-2 0 0
TRAC 0 1 0 1 9.646596061809E-1 0 0 1.618989988728E-2 0 0
TRAC 0 1 0 1 1.317496149928E-1 -2.281970270451E-1 0 1.618989988728E-2 0 0
TRAC 0 1 0 1 2.872322571577E-1 -4.975008629698E-1 0 3.035221419732E-2 0 0
TRAC 0 1 0 1 4.09264743715E-1 -7.08867329861E-1 0 3.035221419732E-2 0 0
TRAC 0 1 0 1 4.823298030904E-1 -8.354197249573E-1 0 1.618989988728E-2 0 0
TRAC 0 2 0 1 1.317496149928E-1 2.281970270451E-1 0 2.023737455554E-2 0 0
TRAC 0 2 0 1 2.872322571577E-1 4.975008629698E-1 0 3.794026717755E-2 0 0
TRAC 0 2 0 1 4.09264743715E-1 7.08867329861E-1 0 3.794026717755E-2 0 0
TRAC 0 2 0 1 4.823298030904E-1 8.354197249573E-1 0 2.023737455554E-2 0 0
TRAC 0 2 0 1 2.634992299855E-1 0 0 2.023737455554E-2 0 0
TRAC 0 2 0 1 5.744645143154E-1 0 0 3.794026717755E-2 0 0
TRAC 0 2 0 1 8.1852948743E-1 0 0 3.794026717755E-2 0 0
TRAC 0 2 0 1 9.646596061809E-1 0 0 2.023737455554E-2 0 0
TRAC 0 2 0 1 1.317496149928E-1 -2.281970270451E-1 0 2.023737455554E-2 0 0
TRAC 0 2 0 1 2.872322571577E-1 -4.975008629698E-1 0 3.794026717755E-2 0 0
TRAC 0 2 0 1 4.09264743715E-1 -7.08867329861E-1 0 3.794026717755E-2 0 0
TRAC 0 2 0 1 4.823298030904E-1 -8.354197249573E-1 0 2.023737455554E-2 0 0
TRAC 0 3 0 1 1.317496149928E-1 2.281970270451E-1 0 1.618989988728E-2 0 0
TRAC 0 3 0 1 2.872322571577E-1 4.975008629698E-1 0 3.035221419732E-2 0 0
TRAC 0 3 0 1 4.09264743715E-1 7.08867329861E-1 0 3.035221419732E-2 0 0
TRAC 0 3 0 1 4.823298030904E-1 8.354197249573E-1 0 1.618989988728E-2 0 0
TRAC 0 3 0 1 2.634992299855E-1 0 0 1.618989988728E-2 0 0
TRAC 0 3 0 1 5.744645143154E-1 0 0 3.035221419732E-2 0 0
TRAC 0 3 0 1 8.1852948743E-1 0 0 3.035221419732E-2 0 0
TRAC 0 3 0 1 9.646596061809E-1 0 0 1.618989988728E-2 0 0
TRAC 0 3 0 1 1.317496149928E-1 -2.281970270451E-1 0 1.618989988728E-2 0 0
TRAC 0 3 0 1 2.872322571577E-1 -4.975008629698E-1 0 3.035221419732E-2 0 0
TRAC 0 3 0 1 4.09264743715E-1 -7.08867329861E-1 0 3.035221419732E-2 0 0
TRAC 0 3 0 1 4.823298030904E-1 -8.354197249573E-1 0 1.618989988728E-2 0 0
TOL TOFF   0   0              0              0   0 0 0
MNUM 2 2
MCOM   0   1 "untilted" 0 0 0 1 1 0 0.0 ""
MCOM   0   2 "tilted" 0 0 0 1 1 0 0.0 ""
MCOM   8   1 "untilted" 0 0 0 1 1 0 0.0 ""
MCOM   8   2 "tilted" 0 0 0 1 1 0 0.0 ""
PRAM   0   1 0.000000000000E+000 0 2 0 1 1 1.000000000000E+000 0.000000000000E+000 0
PRAM   0   2 -5.770000000000E-001 0 2 0 1 1 1.000000000000E+000 0.000000000000E+000 0
PRAM   8   1 0.000000000000E+000 0 3 0 1 1 1.000000000000E+000 0.000000000000E+000 0
PRAM   8   2 3.000000000000E+001 0 3 0 1 1 1.000000000000E+000 0.000000000000E+000 0
